Version 4
SHEET 1 880 680
WIRE -96 -48 -128 -48
WIRE 16 -48 -16 -48
WIRE -128 16 -128 -48
WIRE 16 16 16 -48
WIRE -128 128 -128 96
WIRE 16 128 16 96
WIRE 16 128 -128 128
WIRE -96 272 -128 272
WIRE 16 272 -16 272
WIRE -128 336 -128 272
WIRE 16 336 16 272
WIRE -128 448 -128 416
WIRE 16 448 16 416
WIRE 16 448 -128 448
SYMBOL ind2 0 0 R0
SYMATTR InstName L1
SYMATTR Value 1.43741567552195e-6
SYMATTR Type ind
SYMATTR SpiceLine Rser=2.46255310947963e-10 Cpar=9.17122498180724e-13
SYMBOL voltage -128 0 R0
SYMATTR InstName V1
SYMBOL ind2 0 320 R0
SYMATTR InstName L2
SYMATTR Value 3.41677831647223e-6
SYMATTR Type ind
SYMATTR SpiceLine Rser=2.46255310947963e-10 Cpar=9.17122498180724e-13
SYMBOL voltage -128 320 R0
SYMATTR InstName V2
SYMBOL res 0 -64 R90
WINDOW 0 0 56 VBottom 2
WINDOW 3 32 56 VTop 2
SYMATTR InstName R1
SYMATTR Value 200
SYMBOL res 0 256 R90
WINDOW 0 0 56 VBottom 2
WINDOW 3 32 56 VTop 2
SYMATTR InstName R2
SYMATTR Value 200
